Version 4
SHEET 1 2484 680
WIRE 240 -112 192 -112
WIRE 80 32 -80 32
WIRE -80 64 -80 32
WIRE 192 64 192 -112
WIRE 400 64 192 64
WIRE 560 64 400 64
WIRE 656 64 656 0
WIRE 656 64 560 64
WIRE 752 64 656 64
WIRE 912 64 752 64
WIRE 1072 64 912 64
WIRE 1216 64 1072 64
WIRE 1344 64 1216 64
WIRE 1472 64 1344 64
WIRE 1600 64 1472 64
WIRE 1728 64 1600 64
WIRE 1856 64 1728 64
WIRE 352 160 352 144
WIRE 352 160 192 160
WIRE 512 160 512 144
WIRE 512 160 400 160
WIRE 704 160 704 144
WIRE 704 160 560 160
WIRE 864 160 864 144
WIRE 864 160 752 160
WIRE 1024 160 1024 144
WIRE 1024 160 912 160
WIRE 1168 160 1168 144
WIRE 1168 160 1072 160
WIRE 1296 160 1296 144
WIRE 1296 160 1216 160
WIRE 1424 160 1424 144
WIRE 1424 160 1344 160
WIRE 1552 160 1552 144
WIRE 1552 160 1472 160
WIRE 1680 160 1680 144
WIRE 1680 160 1600 160
WIRE 1808 160 1808 144
WIRE 1808 160 1728 160
WIRE 2096 160 1856 160
WIRE 2400 160 2096 160
WIRE 80 208 80 32
WIRE 144 208 144 144
WIRE 144 208 80 208
WIRE 144 240 144 208
WIRE 352 240 352 160
WIRE 512 240 512 160
WIRE 704 240 704 160
WIRE 864 240 864 160
WIRE 1024 240 1024 160
WIRE 1168 240 1168 160
WIRE 1296 240 1296 160
WIRE 1424 240 1424 160
WIRE 1552 240 1552 160
WIRE 1680 240 1680 160
WIRE 1808 240 1808 160
FLAG -80 144 0
FLAG 656 0 COM
IOPIN 656 0 Out
FLAG 400 256 0
FLAG 192 256 0
FLAG 240 -32 0
FLAG 560 256 0
FLAG 752 256 0
FLAG 912 256 0
FLAG 1072 256 0
FLAG 2400 160 COM2
FLAG 1216 256 0
FLAG 1344 256 0
FLAG 1472 256 0
FLAG 1600 256 0
FLAG 1728 256 0
FLAG 1856 256 0
FLAG 2096 160 0
SYMBOL pmos 352 64 R0
SYMATTR InstName M1
SYMBOL nmos 352 160 R0
SYMATTR InstName M2
SYMBOL voltage -80 48 R0
WINDOW 123 0 0 Left 0
WINDOW 39 0 0 Left 0
SYMATTR InstName V1
SYMATTR Value PULSE(0 1 0 10p 10p 1n 2n)
SYMBOL pmos 144 64 R0
SYMATTR InstName M3
SYMBOL nmos 144 160 R0
SYMATTR InstName M4
SYMBOL voltage 240 -128 R0
WINDOW 123 0 0 Left 0
WINDOW 39 0 0 Left 0
SYMATTR InstName V2
SYMATTR Value 3.3
SYMBOL pmos 512 64 R0
SYMATTR InstName M5
SYMBOL nmos 512 160 R0
SYMATTR InstName M6
SYMBOL pmos 704 64 R0
SYMATTR InstName M7
SYMBOL nmos 704 160 R0
SYMATTR InstName M8
SYMBOL pmos 864 64 R0
SYMATTR InstName M9
SYMBOL nmos 864 160 R0
SYMATTR InstName M10
SYMBOL pmos 1024 64 R0
SYMATTR InstName M11
SYMBOL nmos 1024 160 R0
SYMATTR InstName M12
SYMBOL pmos 1168 64 R0
SYMATTR InstName M13
SYMBOL nmos 1168 160 R0
SYMATTR InstName M14
SYMBOL pmos 1296 64 R0
SYMATTR InstName M15
SYMBOL nmos 1296 160 R0
SYMATTR InstName M16
SYMBOL pmos 1424 64 R0
SYMATTR InstName M17
SYMBOL nmos 1424 160 R0
SYMATTR InstName M18
SYMBOL pmos 1552 64 R0
SYMATTR InstName M19
SYMBOL nmos 1552 160 R0
SYMATTR InstName M20
SYMBOL pmos 1680 64 R0
SYMATTR InstName M21
SYMBOL nmos 1680 160 R0
SYMATTR InstName M22
SYMBOL pmos 1808 64 R0
SYMATTR InstName M23
SYMBOL nmos 1808 160 R0
SYMATTR InstName M24
TEXT -112 168 Left 2 !.tran 10n
TEXT 1288 -184 Left 2 !.meas tran in_delay tran t_rise(in)-t_rise(out)\n.meas tran out_delay tran t_fall(in)-t_fall(out)
